.MODEL MPSA18 NPN(IS=33.58f ISE=166.7f ISC=0 XTI=3 BF=236 BR=5.774 IKF=0.1172 IKR=0 XTB=1.5 VAF=100 VAR=30 VJE=0.65 VJC=0.65 RE=0.1 RC=1 RB=10 CJE=7.547p CJC=4.948p XCJC=0.75 FC=0.5 NF=1 NR=1 NE=1.579 NC=2 MJE=0.3765 MJC=0.4109 TF=310.1p TR=800.3p ITF=0.6 VTF=6 XTF=35 EG=1.11 VCEO=45 ICRATING=200m)
.MODEL 2N3565 NPN(IS=5.911f ISE=5.911f ISC=0 XTI=3 BF=697.1 BR=1.297 IKF=13.93m IKR=0 XTB=1.5 VAF=62.37 VAR=21.5 VJE=0.65 VJC=0.65 RE=0.15 RC=1.61 RB=10 CJE=4.973p CJC=4.017p XCJC=0.75 FC=0.5 NF=1 NR=1 NE=1.342 NC=2 MJE=0.4146 MJC=0.3174 TF=820.4p TR=4.687n ITF=0.35 VTF=4 XTF=7 EG=1.11 VCEO=30 ICRATING=50m)
.MODEL 2N5088 NPN(IS=5.911f ISE=5.911f ISC=0 XTI=3 BF=1122 BR=1.271 IKF=14.92m IKR=0 XTB=1.5 VAF=62.37 VAR=21.5 VJE=0.65 VJC=0.65 RE=0.15 RC=1.61 RB=10 CJE=4.973p CJC=4.017p XCJC=0.75 FC=0.5 NF=1 NR=1 NE=1.394 NC=2 MJE=0.4146 MJC=0.3174 TF=821.7p TR=4.673n ITF=0.35 VTF=4 XTF=7 EG=1.11 VCEO=35 ICRATING=50m)
.model 2N4401 NPN(Is=26.03f Xti=3 Eg=1.11 Vaf=90.7 Bf=4.292K Ne=1.244 Ise=26.03f Ikf=.2061 Xtb=1.5 Br=1.01 Nc=2 Isc=0 Ikr=0 Rc=.5 Cjc=11.01p Mjc=.3763 Vjc=.75 Fc=.5 Cje=24.07p Mje=.3641 Vje=.75 Tr=233.7n Tf=466.5p Itf=0 Vtf=0 Xtf=0 Rb=10 Vceo=40 Icrating=600m)
