.model 1N4004 d (IS=65.4p RS=42.2m BV=400 IBV=5.00u CJO=14.8p M=0.333 N=1.36 TT=2.88u)
.model 1N4148 d (IS=10.4n RS=51.5m BV=75.0 IBV=1.00u CJO=2.00p M=0.333 N=2.07 TT=5.76n)
.model LedRed d (IS=93.2P RS=42M N=3.73 BV=4 IBV=10U CJO=2.97P VJ=0.75 M=0.333 TT=4.32u)
.model LedGreen d (IS=93.2P RS=42M N=4.61 BV=4 IBV=10U CJO=2.97P VJ=.75 M=.333 TT=4.32U)