.subckt SPST 1 2 POS=0
  * .param doesnt work in if..else
  .if (POS >= 1)
    r1 1 2 0.01
  .else
    r1 1 2 1G
  .endif
.ends